2024-08-13T16:07:33,050  INFO Gbl:64 JVM: 21; Microsoft; mixed mode, sharing; 64-bit
2024-08-13T16:07:33,053  INFO Gbl:68 OS: Windows 10; 10.0; amd64
2024-08-13T16:07:33,054  INFO Gbl:71 CPU cores: 12
2024-08-13T16:07:33,056  INFO Gbl:72 max. Memory: 1024.0MB (1073741824B)
2024-08-13T16:07:33,057  INFO Gbl:114 MATSim-Build: ree04702ba7fc026b6bdf5a6ea52a749cf0c790e1 (2024-04-13 15:48:32)
2024-08-13T16:07:33,058  INFO Gbl:76 Command: org.matsim.project.RunMatsim C:\Users\HW5P\IdeaProjects\MATsim-example-project\scenarios\equil\config.xml
2024-08-13T16:07:33,061  INFO ControlerListenerManagerImpl:112 calling notifyStartup on org.matsim.core.controler.ControlerDefaultsModule$1 with priority 0.0
2024-08-13T16:07:33,062  INFO MemoryObserver:42 used RAM: 163 MB  free: 80 MB  total: 244 MB
2024-08-13T16:07:33,108  INFO ControlerListenerManagerImpl:112 calling notifyStartup on org.matsim.guice.DependencyGraphControlerListener with priority 0.0
2024-08-13T16:07:33,168  INFO ControlerListenerManagerImpl:112 calling notifyStartup on org.matsim.counts.CountsControlerListener with priority 0.0
2024-08-13T16:07:33,168  INFO ControlerListenerManagerImpl:112 calling notifyStartup on org.matsim.analysis.ModeStatsControlerListener with priority 0.0
2024-08-13T16:07:33,168  INFO ControlerListenerManagerImpl:112 calling notifyStartup on org.matsim.analysis.ScoreStatsControlerListener with priority 0.0
2024-08-13T16:07:33,169  INFO ControlerListenerManagerImpl:115 all ControlerStartupListeners called.
2024-08-13T16:07:33,169  INFO ControlerUtils:79 config dump before iterations start
2024-08-13T16:07:33,186  INFO ControlerUtils:83 

<?xml version="1.0" encoding="UTF-8"?>
<!DOCTYPE config SYSTEM "http://www.matsim.org/files/dtd/config_v2.dtd">
<config>
	<module name="changeMode" >
		<!-- Defines whether car availability is considered be considered or not. An agent has no car only if it has no license, or never access to a car. Default: true -->
		<param name="ignoreCarAvailability" value="true" />
		<!-- Defines the mode switch behavior. Possible values [fromAllModesToSpecifiedModes, fromSpecifiedModesToSpecifiedModes] Default: fromSpecifiedModesToSpecifiedModes. -->
		<param name="modeSwitchBehavior" value="fromSpecifiedModesToSpecifiedModes" />
		<!-- Defines all the modes available, including chain-based modes, seperated by commas -->
		<param name="modes" value="car,pt" />
	</module>
	<module name="controller" >
		<!-- Defines what should be done with the ITERS directory when a simulation finished successfully -->
		<param name="cleanItersAtEnd" value="keep" />
		<!-- Compression algorithm to use when writing out data to files. Possible values: [none, gzip, lz4, zst] -->
		<param name="compressionType" value="gzip" />
		<!-- Sets the interval in which graphs are generated. Default is 1. If set to 0, no graphs are generated. The generation of graphs usually takes a small amount of time that does not have any weight in big simulations, but add a significant overhead in smaller runs or in test cases where the graphical output is not even requested. -->
		<param name="createGraphsInterval" value="1" />
		<!-- Defines when the scoring functions for the population are created. Default=IterationStarts. Possible values: [IterationStarts, BeforeMobsim] -->
		<param name="createScoringFunctionType" value="IterationStarts" />
		<!-- true if at the end of a run, plans, network, config etc should be dumped to a file -->
		<param name="dumpDataAtEnd" value="true" />
		<!-- Default=false. If enabled, the router takes travel times needed for turning moves into account. Can only be used with Dijkstra routing. Cannot be used when TravelTimeCalculator.separateModes is enabled. -->
		<param name="enableLinkToLinkRouting" value="false" />
		<!-- Default=xml; Specifies the file format for writing events. Currently supported: [xml, pb, json]
		Multiple values can be specified separated by commas (','). -->
		<param name="eventsFileFormat" value="xml" />
		<!-- Default=0. First Iteration of a simulation. -->
		<param name="firstIteration" value="0" />
		<!-- Default=1000. Last Iteration of a simulation. -->
		<param name="lastIteration" value="0" />
		<!-- Defines the interval for printing memory usage to the log in [seconds]. Must be positive. Defaults to 60. -->
		<param name="memoryObserverInterval" value="60" />
		<!-- Defines which mobility simulation will be used. Currently supported: [qsim, JDEQSim, hermes]
		Depending on the chosen mobsim, you'll have to add additional config modules to configure the corresponding mobsim.
		For 'qsim', add a module 'qsim' to the config. -->
		<param name="mobsim" value="qsim" />
		<param name="outputDirectory" value="./output" />
		<!-- Possible values: failIfDirectoryExists,overwriteExistingFiles,deleteDirectoryIfExists -->
		<param name="overwriteFiles" value="deleteDirectoryIfExists" />
		<!-- The type of routing (least cost path) algorithm used, may have the values: [Dijkstra, AStarLandmarks, SpeedyALT] -->
		<param name="routingAlgorithmType" value="SpeedyALT" />
		<!-- An identifier for the current run which is used as prefix for output files and mentioned in output xml files etc. -->
		<param name="runId" value="null" />
		<!-- Comma-separated list of visualizer output file formats. `transims' and `otfvis'. -->
		<param name="snapshotFormat" value="" />
		<!-- iterationNumber % writeEventsInterval == 0 defines in which iterations events are written to a file. `0' disables events writing completely. -->
		<param name="writeEventsInterval" value="50" />
		<!-- iterationNumber % writePlansInterval == 0 defines (hopefully) in which iterations plans are written to a file. `0' disables plans writing completely.  Some plans in early iterations are always written -->
		<param name="writePlansInterval" value="50" />
		<!-- iterationNumber % writeSnapshotsInterval == 0 defines in which iterations snapshots are written to a file. `0' disables snapshots writing completely -->
		<param name="writeSnapshotsInterval" value="1" />
		<!-- iterationNumber % writeEventsInterval == 0 defines in which iterations trips CSV are written to a file. `0' disables trips writing completely. -->
		<param name="writeTripsInterval" value="50" />
	</module>
	<module name="counts" >
		<!-- Transport modes that will be respected for the counts comparison. 'car' is default, which includes also bussed from the pt simulation module. Use this parameter in combination with 'filterModes' = true! -->
		<param name="analyzedModes" value="car" />
		<!-- Specifies over how many iterations the link volumes should be averaged that are used for the counts comparison. Use 1 or 0 to only use the link volumes of a single iteration. This values cannot be larger than the value specified for writeCountsInterval -->
		<param name="averageCountsOverIterations" value="5" />
		<!-- factor by which to re-scale the simulated values.  necessary when simulation runs with something different from 100%.  needs to be adapted manually -->
		<param name="countsScaleFactor" value="1.0" />
		<!-- distance to distanceFilterCenterNode to include counting stations. The unit of distance is the Euclidean distance implied by the coordinate system -->
		<param name="distanceFilter" value="null" />
		<!-- node id for center node of distance filter -->
		<param name="distanceFilterCenterNode" value="null" />
		<!-- If true, link counts from legs performed on modes not included in the 'analyzedModes' parameter are ignored. -->
		<param name="filterModes" value="false" />
		<!-- The Coordinates Reference System in which the coordinates are expressed in the input file. At import, the coordinates will be converted to the coordinate system defined in "global", and willbe converted back at export. If not specified, no conversion happens. -->
		<param name="inputCRS" value="null" />
		<!-- input file name to counts package -->
		<param name="inputCountsFile" value="null" />
		<!-- possible values: `html', `txt', `all' -->
		<param name="outputformat" value="txt" />
		<!-- Specifies how often the counts comparison should be calculated and written. -->
		<param name="writeCountsInterval" value="10" />
	</module>
	<module name="eventsManager" >
		<!-- Estimated number of events during mobsim run. An optional optimization hint for the framework. -->
		<param name="estimatedNumberOfEvents" value="null" />
		<!-- Size of the events Queue. Increase for very large scenarios -->
		<param name="eventsQueueSize" value="131072" />
		<!-- Number of threads for parallel events handler. _null_ means the framework decides by itself. 0 is currently not possible. -->
		<param name="numberOfThreads" value="null" />
		<!-- If enabled, each event handler is assigned to its own thread. Note that enabling this feature disabled the numberOfThreads option! This feature is still experimental! -->
		<param name="oneThreadPerHandler" value="false" />
		<!-- If enabled, it is ensured that all events that are created during a time step of the mobility simulation are processed before the next time step is simulated. E.g. neccessary when within-day replanning is used. -->
		<param name="synchronizeOnSimSteps" value="true" />
	</module>
	<module name="facilities" >
		<!-- This defines how facilities should be created. Possible values: none fromFile setInScenario onePerActivityLinkInPlansFile onePerActivityLinkInPlansFileExceptWhenCoordinatesAreGiven onePerActivityLocationInPlansFile  -->
		<param name="facilitiesSource" value="none" />
		<!-- A prefix to be used for auto-generated IDs. -->
		<param name="idPrefix" value="f_auto_" />
		<!-- The Coordinates Reference System in which the coordinates are expressed in the input file. At import, the coordinates will be converted to the coordinate system defined in "global", and willbe converted back at export. If not specified, no conversion happens. -->
		<param name="inputCRS" value="null" />
		<param name="inputFacilitiesFile" value="null" />
		<param name="inputFacilityAttributesFile" value="null" />
		<param name="insistingOnUsingDeprecatedFacilitiesAttributeFile" value="false" />
	</module>
	<module name="global" >
		<param name="coordinateSystem" value="EPSG:26910" />
		<param name="defaultDelimiter" value=";" />
		<param name="insistingOnDeprecatedConfigVersion" value="true" />
		<!-- "global" number of threads.  This number is used, e.g., for replanning, but NOT in QSim.  This can typically be set to as many cores as you have available, or possibly even slightly more. -->
		<param name="numberOfThreads" value="2" />
		<param name="randomSeed" value="4711" />
	</module>
	<module name="hermes" >
		<!-- Simulation End Time -->
		<param name="endTime" value="30:00:00" />
		<param name="flowCapacityFactor" value="1.0" />
		<param name="mainMode" value="car" />
		<param name="storageCapacityFactor" value="1.0" />
		<!-- time in seconds.  Time after which the frontmost vehicle on a link is called `stuck' if it does not move. Set to Integer.MAX_VALUE to disable this behavior -->
		<param name="stuckTime" value="10" />
		<!-- treats PT as deterministic. PT vehicles will run with a steady speed. Should be used with separate network layers for PT and other network modes. -->
		<param name="useDeterministicPt" value="false" />
	</module>
	<module name="households" >
		<param name="inputFile" value="null" />
		<param name="inputHouseholdAttributesFile" value="null" />
		<param name="insistingOnUsingDeprecatedHouseholdsAttributeFile" value="false" />
	</module>
	<module name="jdeqsim" >
		<param name="carSize" value="7.5" />
		<param name="endTime" value="undefined" />
		<param name="flowCapacityFactor" value="1.0" />
		<param name="gapTravelSpeed" value="15.0" />
		<param name="minimumInFlowCapacity" value="1800.0" />
		<param name="squeezeTime" value="1800.0" />
		<param name="storageCapacityFactor" value="1.0" />
	</module>
	<module name="linkStats" >
		<!-- Specifies over how many iterations the link volumes should be averaged that are used for the link statistics. Use 1 or 0 to only use the link volumes of a single iteration. This values cannot be larger than the value specified for writeLinkStatsInterval -->
		<param name="averageLinkStatsOverIterations" value="5" />
		<!-- Specifies how often the link stats should be calculated and written. Use 0 to disable the generation of link stats. -->
		<param name="writeLinkStatsInterval" value="50" />
	</module>
	<module name="network" >
		<!-- The Coordinates Reference System in which the coordinates are expressed in the input file. At import, the coordinates will be converted to the coordinate system defined in "global", and willbe converted back at export. If not specified, no conversion happens. -->
		<param name="inputCRS" value="null" />
		<param name="inputChangeEventsFile" value="null" />
		<param name="inputNetworkFile" value="new-west_v2.xml" />
		<param name="laneDefinitionsFile" value="null" />
		<param name="timeVariantNetwork" value="false" />
	</module>
	<module name="planInheritance" >
		<!-- Specifies whether or not PlanInheritance Information should be tracked. -->
		<param name="enabled" value="false" />
	</module>
	<module name="plans" >
		<!-- String: minOfDurationAndEndTime tryEndTimeThenDuration endTimeOnly. Anything besides minOfDurationAndEndTime will internally use a different (simpler) version of the TimeAllocationMutator. -->
		<param name="activityDurationInterpretation" value="tryEndTimeThenDuration" />
		<!-- Possible values: reject,useMainModeIdentifier -->
		<param name="handlingOfPlansWithoutRoutingMode" value="reject" />
		<!-- The Coordinates Reference System in which the coordinates are expressed in the input file. At import, the coordinates will be converted to the coordinate system defined in "global", and willbe converted back at export. If not specified, no conversion happens. -->
		<param name="inputCRS" value="null" />
		<param name="inputPersonAttributesFile" value="null" />
		<param name="inputPlansFile" value="plans500v3.xml" />
		<param name="insistingOnUsingDeprecatedPersonAttributeFile" value="false" />
		<!-- Defines how routes are stored in memory. Currently supported: LinkNetworkRoute, MediumCompressedNetworkRoute, HeavyCompressedNetworkRoute. -->
		<param name="networkRouteType" value="LinkNetworkRoute" />
		<!-- (not tested) will remove plan attributes that are presumably not used, such as activityStartTime. default=false. Use with Caution! -->
		<param name="removingUnnecessaryPlanAttributes" value="false" />
		<!-- Defines how departure times are interpreted in rerouting applications. If set to 'ignoreDelays', the departure time of a trip when routing along a plan will always be the nominal (plan-based) activity end time. If set to 'shiftActivityEndTimes', routing along a plan will accumulate travel times and shift activity end times if necessary -->
		<param name="tripDurationHandling" value="ignoreDelays" />
	</module>
	<module name="qsim" >
		<param name="endTime" value="00:00:00" />
		<!-- If set to withLinkAttributes snapshots will only be generated for links which include generateSnapshotForLink as attribute key. Default is no filtering. -->
		<param name="filterSnapshots" value="no" />
		<param name="flowCapacityFactor" value="1.0" />
		<!-- decides if waiting vehicles enter the network after or before the already driving vehicles were moved. Default: false -->
		<param name="insertingWaitingVehiclesBeforeDrivingVehicles" value="true" />
		<!-- If link dynamics is set as SeepageQ, set to false if all seep modes should perform seepage. Default is true (better option). -->
		<param name="isRestrictingSeepage" value="true" />
		<!-- If link dynamics is set as SeepageQ, set to true if seep mode do not consumes any space on the link. Default is false. -->
		<param name="isSeepModeStorageFree" value="false" />
		<!-- default: FIFO; options: FIFO PassingQ SeepageQ -->
		<param name="linkDynamics" value="FIFO" />
		<!-- The (initial) width of the links of the network. Use positive floating point values. This is used only for visualisation. -->
		<param name="linkWidth" value="30.0" />
		<!-- [comma-separated list] Defines which modes are congested modes. Technically, these are the modes that the departure handler of the netsimengine handles.  Effective cell size, effective lane width, flow capacity factor, and storage capacity factor need to be set with diligence.  Need to be vehicular modes to make sense. -->
		<param name="mainMode" value="car" />
		<!-- Shortens a link in the visualization, i.e. its start and end point are moved into towards the center. Does not affect traffic flow.  -->
		<param name="nodeOffset" value="0.0" />
		<!-- Number of threads used for the QSim.  Note that this setting is independent from the "global" threads setting.  In contrast to earlier versions, the non-parallel special version is no longer there. -->
		<param name="numberOfThreads" value="1" />
		<!-- Boolean. `true': stuck vehicles are removed, aborting the plan; `false': stuck vehicles are forced into the next link. `false' is probably the better choice. -->
		<param name="removeStuckVehicles" value="false" />
		<!-- If link dynamics is set as SeepageQ, set a seep mode. Default is bike. -->
		<param name="seepMode" value="bike" />
		<!-- Possible values: minOfEndtimeAndMobsimFinished,onlyUseEndtime -->
		<param name="simEndtimeInterpretation" value="null" />
		<!-- Options: maxOfStarttimeAndEarliestActivityEnd onlyUseStarttime  -->
		<param name="simStarttimeInterpretation" value="maxOfStarttimeAndEarliestActivityEnd" />
		<!-- snapshotStyle. One of: equiDist queue withHoles withHolesAndShowHoles kinematicWaves  -->
		<param name="snapshotStyle" value="queue" />
		<param name="snapshotperiod" value="00:01:00" />
		<param name="startTime" value="00:00:00" />
		<param name="storageCapacityFactor" value="1.0" />
		<!-- time in seconds.  Time after which the frontmost vehicle on a link is called `stuck' if it does not move. -->
		<param name="stuckTime" value="10.0" />
		<param name="timeStepSize" value="00:00:01" />
		<!-- options: queue withHoles kinematicWaves  -->
		<param name="trafficDynamics" value="queue" />
		<!-- Set this parameter to true if lanes should be used, false if not. -->
		<param name="useLanes" value="false" />
		<!-- If a route does not reference a vehicle, agents will use the vehicle with the same id as their own. -->
		<param name="usePersonIdForMissingVehicleId" value="true" />
		<!-- If false, the qsim accumulates fractional flows up to one flow unit in every time step.  If true, flows are updated only if an agent wants to enter the link or an agent is added to buffer. Default is true. -->
		<param name="usingFastCapacityUpdate" value="true" />
		<!-- Defines what happens if an agent wants to depart, but the specified vehicle is not available. One of: teleport wait exception  -->
		<param name="vehicleBehavior" value="teleport" />
		<!-- If vehicles should all be the same default vehicle, or come from the vehicles file, or something else.  Possible values:  defaultVehicle modeVehicleTypesFromVehiclesData fromVehiclesData -->
		<param name="vehiclesSource" value="defaultVehicle" />
	</module>
	<module name="replanning" >
		<!-- the external executable will be called with a config file as argument.  This is the pathname to a possible skeleton config, to which additional information will be added.  Can be null. -->
		<param name="ExternalExeConfigTemplate" value="null" />
		<!-- time out value (in seconds) after which matsim will consider the external strategy as failed -->
		<param name="ExternalExeTimeOut" value="3600" />
		<!-- root directory for temporary files generated by the external executable. Provided as a service; I don't think this is used by MATSim. -->
		<param name="ExternalExeTmpFileRootDir" value="null" />
		<!-- fraction of iterations where innovative strategies are switched off.  Something like 0.8 should be good.  E.g. if you run from iteration 400 to iteration 500, innovation is switched off at iteration 480 -->
		<param name="fractionOfIterationsToDisableInnovation" value="Infinity" />
		<!-- maximum number of plans per agent.  ``0'' means ``infinity''.  Currently (2010), ``5'' is a good number -->
		<param name="maxAgentPlanMemorySize" value="5" />
		<!-- strategyName of PlanSelector for plans removal.  Possible defaults: WorstPlanSelector SelectRandom SelectExpBetaForRemoval ChangeExpBetaForRemoval PathSizeLogitSelectorForRemoval . The current default, WorstPlanSelector is not a good choice from a discrete choice theoretical perspective. Alternatives, however, have not been systematically tested. kai, feb'12 -->
		<param name="planSelectorForRemoval" value="WorstPlanForRemovalSelectorWithConflicts" />
	</module>
	<module name="replanningAnnealer" >
		<!-- Activate the scaling of replanning modules using an annealing approach rather than fixed rates. -->
		<param name="activateAnnealingModule" value="false" />
	</module>
	<module name="routing" >
		<!-- Defines how access and egress to main mode is simulated. Either of [none, accessEgressModeToLink, walkConstantTimeToLink, accessEgressModeToLinkPlusTimeConstant], Current default=none which means no access or egress trips are simulated. -->
		<param name="accessEgressType" value="none" />
		<!-- Some typical teleportation routing params are set by default, such as for walk and bike.  Setting this switch to "true" will clear them.  Note that this will also clear settings for helper modes such as for non_network_walk -->
		<param name="clearDefaultTeleportedModeParams" value="false" />
		<!-- All the modes for which the router is supposed to generate network routes (like car) -->
		<param name="networkModes" value="car" />
		<!-- strength of the randomness for the utility of money in routing under toll.  Leads to Pareto-optimal route with randomly drawn money-vs-other-attributes tradeoff. Technically the width parameter of a log-normal distribution. 3.0 seems to be a good value.  -->
		<param name="routingRandomness" value="3.0" />
		<parameterset type="teleportedModeParameters" >
			<param name="beelineDistanceFactor" value="1.3" />
			<param name="mode" value="bike" />
			<!-- Free-speed factor for a teleported mode. Travel time = teleportedModeFreespeedFactor * <freespeed car travel time>. Insert a line like this for every such mode. Please do not set teleportedModeFreespeedFactor as well as teleportedModeSpeed for the same mode, but if you do, +teleportedModeFreespeedFactor wins over teleportedModeSpeed. -->
			<param name="teleportedModeFreespeedFactor" value="null" />
			<!-- Speed for a teleported mode. Travel time = (<beeline distance> * beelineDistanceFactor) / teleportedModeSpeed. Insert a line like this for every such mode. -->
			<param name="teleportedModeSpeed" value="4.166666666666667" />
		</parameterset>
		<parameterset type="teleportedModeParameters" >
			<param name="beelineDistanceFactor" value="1.3" />
			<param name="mode" value="walk" />
			<param name="teleportedModeFreespeedFactor" value="null" />
			<param name="teleportedModeSpeed" value="0.8333333333333333" />
		</parameterset>
		<parameterset type="teleportedModeParameters" >
			<param name="beelineDistanceFactor" value="1.3" />
			<param name="mode" value="non_network_walk" />
			<param name="teleportedModeFreespeedFactor" value="null" />
			<param name="teleportedModeSpeed" value="0.8333333333333333" />
		</parameterset>
		<parameterset type="teleportedModeParameters" >
			<param name="beelineDistanceFactor" value="1.3" />
			<param name="mode" value="ride" />
			<param name="teleportedModeFreespeedFactor" value="1.0" />
			<param name="teleportedModeSpeed" value="null" />
		</parameterset>
		<parameterset type="teleportedModeParameters" >
			<param name="beelineDistanceFactor" value="1.3" />
			<param name="mode" value="pt" />
			<param name="teleportedModeFreespeedFactor" value="2.0" />
			<param name="teleportedModeSpeed" value="null" />
		</parameterset>
	</module>
	<module name="scoring" >
		<!-- logit model scale parameter. default: 1.  Has name and default value for historical reasons (see Bryan Raney's phd thesis). -->
		<param name="brainExpBeta" value="1.0" />
		<!-- fraction of iterations at which MSA score averaging is started. The matsim theory department suggests to use this together with switching off choice set innovation (where a similar switch exists), but it has not been tested yet. -->
		<param name="fractionOfIterationsToStartScoreMSA" value="null" />
		<!-- new_score = (1-learningRate)*old_score + learningRate * score_from_mobsim.  learning rates close to zero emulate score averaging, but slow down initial convergence -->
		<param name="learningRate" value="1.0" />
		<param name="pathSizeLogitBeta" value="1.0" />
		<!-- There used to be a plateau between duration=0 and duration=zeroUtilityDuration. This caused durations to evolve to zero once they were below zeroUtilityDuration, causing problems.  Only use this switch if you need to be backwards compatible with some old results.  (changed nov'13) -->
		<param name="usingOldScoringBelowZeroUtilityDuration" value="false" />
		<!-- write a plans file in each iteration directory which contains what each agent actually did, and the score it received. -->
		<param name="writeExperiencedPlans" value="false" />
		<parameterset type="scoringParameters" >
			<param name="earlyDeparture" value="-0.0" />
			<param name="lateArrival" value="-18.0" />
			<param name="marginalUtilityOfMoney" value="1.0" />
			<param name="performing" value="6.0" />
			<param name="subpopulation" value="null" />
			<param name="utilityOfLineSwitch" value="-1.0" />
			<param name="waiting" value="-0.0" />
			<param name="waitingPt" value="-6.0" />
			<parameterset type="activityParams" >
				<param name="activityType" value="home" />
				<param name="closingTime" value="undefined" />
				<param name="earliestEndTime" value="undefined" />
				<param name="latestStartTime" value="undefined" />
				<param name="minimalDuration" value="undefined" />
				<param name="openingTime" value="undefined" />
				<param name="priority" value="1.0" />
				<param name="scoringThisActivityAtAll" value="true" />
				<!-- typical duration of activity.  needs to be defined and non-zero.  in sec. -->
				<param name="typicalDuration" value="16:00:00" />
				<!-- method to compute score at typical duration.  Options: | uniform | relative | Use uniform for backwards compatibility (all activities same score; higher proba to drop long acts). -->
				<param name="typicalDurationScoreComputation" value="relative" />
			</parameterset>
			<parameterset type="activityParams" >
				<param name="activityType" value="work" />
				<param name="closingTime" value="undefined" />
				<param name="earliestEndTime" value="undefined" />
				<param name="latestStartTime" value="undefined" />
				<param name="minimalDuration" value="undefined" />
				<param name="openingTime" value="undefined" />
				<param name="priority" value="1.0" />
				<param name="scoringThisActivityAtAll" value="true" />
				<param name="typicalDuration" value="08:00:00" />
				<param name="typicalDurationScoreComputation" value="relative" />
			</parameterset>
			<parameterset type="activityParams" >
				<param name="activityType" value="car interaction" />
				<param name="closingTime" value="undefined" />
				<param name="earliestEndTime" value="undefined" />
				<param name="latestStartTime" value="undefined" />
				<param name="minimalDuration" value="undefined" />
				<param name="openingTime" value="undefined" />
				<param name="priority" value="1.0" />
				<param name="scoringThisActivityAtAll" value="false" />
				<param name="typicalDuration" value="undefined" />
				<param name="typicalDurationScoreComputation" value="relative" />
			</parameterset>
			<parameterset type="activityParams" >
				<param name="activityType" value="pt interaction" />
				<param name="closingTime" value="undefined" />
				<param name="earliestEndTime" value="undefined" />
				<param name="latestStartTime" value="undefined" />
				<param name="minimalDuration" value="undefined" />
				<param name="openingTime" value="undefined" />
				<param name="priority" value="1.0" />
				<param name="scoringThisActivityAtAll" value="false" />
				<param name="typicalDuration" value="undefined" />
				<param name="typicalDurationScoreComputation" value="relative" />
			</parameterset>
			<parameterset type="activityParams" >
				<param name="activityType" value="walk interaction" />
				<param name="closingTime" value="undefined" />
				<param name="earliestEndTime" value="undefined" />
				<param name="latestStartTime" value="undefined" />
				<param name="minimalDuration" value="undefined" />
				<param name="openingTime" value="undefined" />
				<param name="priority" value="1.0" />
				<param name="scoringThisActivityAtAll" value="false" />
				<param name="typicalDuration" value="undefined" />
				<param name="typicalDurationScoreComputation" value="relative" />
			</parameterset>
			<parameterset type="modeParams" >
				<!-- [utils] alternative-specific constant.  Normally per trip, but that is probably buggy for multi-leg trips. -->
				<param name="constant" value="0.0" />
				<!-- [unit_of_money/day] Fixed cost of mode, per day. -->
				<param name="dailyMonetaryConstant" value="0.0" />
				<!-- [utils] daily utility constant. default=0 to be backwards compatible -->
				<param name="dailyUtilityConstant" value="0.0" />
				<!-- [utils/m] utility of traveling (e.g. walking or driving) per m, normally negative.  this is on top of the time (dis)utility. -->
				<param name="marginalUtilityOfDistance_util_m" value="0.0" />
				<!-- [utils/hr] additional marginal utility of traveling.  normally negative.  this comes on top of the opportunity cost of time -->
				<param name="marginalUtilityOfTraveling_util_hr" value="-6.0" />
				<param name="mode" value="car" />
				<!-- [unit_of_money/m] conversion of distance into money. Normally negative. -->
				<param name="monetaryDistanceRate" value="-1.0E-4" />
			</parameterset>
			<parameterset type="modeParams" >
				<param name="constant" value="0.0" />
				<param name="dailyMonetaryConstant" value="0.0" />
				<param name="dailyUtilityConstant" value="0.0" />
				<param name="marginalUtilityOfDistance_util_m" value="0.0" />
				<param name="marginalUtilityOfTraveling_util_hr" value="-6.0" />
				<param name="mode" value="pt" />
				<param name="monetaryDistanceRate" value="-1.0E-4" />
			</parameterset>
			<parameterset type="modeParams" >
				<param name="constant" value="0.0" />
				<param name="dailyMonetaryConstant" value="0.0" />
				<param name="dailyUtilityConstant" value="0.0" />
				<param name="marginalUtilityOfDistance_util_m" value="0.0" />
				<param name="marginalUtilityOfTraveling_util_hr" value="-6.0" />
				<param name="mode" value="walk" />
				<param name="monetaryDistanceRate" value="0.0" />
			</parameterset>
		</parameterset>
	</module>
	<module name="subtourModeChoice" >
		<!-- Only for backwards compatibility.  Defines if only trips from modes list should change mode, or all trips.  Options: fromAllModesToSpecifiedModes fromSpecifiedModesToSpecifiedModes betweenAllAndFewerConstraints  -->
		<param name="behavior" value="fromSpecifiedModesToSpecifiedModes" />
		<!-- Defines the chain-based modes, seperated by commas -->
		<param name="chainBasedModes" value="car,bike" />
		<!-- Defines whether car availability must be considered or not. A agent has no car only if it has no license, or never access to a car -->
		<param name="considerCarAvailability" value="false" />
		<!-- If greater than 0, subtours will also consider coordinates to be at the same location when smaller than set distance. -->
		<param name="coordDistance" value="0.0" />
		<!-- Defines all the modes available, including chain-based modes, seperated by commas -->
		<param name="modes" value="car,pt,bike,walk" />
		<!-- Defines the probability of changing a single trip for a unchained mode instead of subtour. -->
		<param name="probaForRandomSingleTripMode" value="0.0" />
	</module>
	<module name="timeAllocationMutator" >
		<!-- Latest Activity End Time. Default = 24:00:00 -->
		<param name="latestActivityEndTime" value="86400.0" />
		<!-- Mutates times only around the initially defined end times. -->
		<param name="mutateAroundInitialEndTimeOnly" value="false" />
		<!-- Default:true; Defines whether time mutation changes an activity's duration. -->
		<param name="mutationAffectsDuration" value="true" />
		<!-- Default:1800.0; Defines how many seconds a time mutation can maximally shift a time. -->
		<param name="mutationRange" value="1800.0" />
		<!-- Mutation Range Step, default = 1 second -->
		<param name="mutationRangeStep" value="1.0" />
	</module>
	<module name="transit" >
		<!-- The Coordinates Reference System in which the coordinates are expressed in the input file. At import, the coordinates will be converted to the coordinate system defined in "global", and willbe converted back at export. If not specified, no conversion happens. -->
		<param name="inputScheduleCRS" value="null" />
		<param name="insistingOnUsingDeprecatedAttributeFiles" value="false" />
		<!-- The type of transit routing algorithm used, may have the values: [DijkstraBased, SwissRailRaptor] -->
		<param name="routingAlgorithmType" value="SwissRailRaptor" />
		<!-- Optional input file containing additional attributes for transit lines, stored as ObjectAttributes. -->
		<param name="transitLinesAttributesFile" value="null" />
		<!-- Comma-separated list of transportation modes that are handled as transit. Defaults to 'pt'. -->
		<param name="transitModes" value="pt" />
		<!-- Input file containing the transit schedule to be simulated. -->
		<param name="transitScheduleFile" value="null" />
		<!-- Optional input file containing additional attributes for transit stop facilities, stored as ObjectAttributes. -->
		<param name="transitStopsAttributesFile" value="null" />
		<!-- Set this parameter to true if transit should be simulated, false if not. -->
		<param name="useTransit" value="false" />
		<param name="usingTransitInMobsim" value="true" />
		<!-- Input file containing the vehicles used by the departures in the transit schedule. -->
		<param name="vehiclesFile" value="null" />
	</module>
	<module name="transitRouter" >
		<!-- additional time the router allocates when a line switch happens. Can be interpreted as a 'safety' time that agents need to safely transfer from one line to another -->
		<param name="additionalTransferTime" value="0.0" />
		<!-- Factor with which direct walk generalized cost is multiplied before it is compared to the pt generalized cost.  Set to a very high value to reduce direct walk results. -->
		<param name="directWalkFactor" value="1.0" />
		<!-- step size to increase searchRadius if no stops are found -->
		<param name="extensionRadius" value="200.0" />
		<!-- maximum beeline distance between stops that agents could transfer to by walking -->
		<param name="maxBeelineWalkConnectionDistance" value="100.0" />
		<!-- the radius in which stop locations are searched, given a start or target coordinate -->
		<param name="searchRadius" value="1000.0" />
	</module>
	<module name="travelTimeCalculator" >
		<!-- (only for backwards compatibility; only used if separateModes==false && + filterModes==true)  Transport modes that will be respected by the travel time collector. 'car' is default which includes also buses from the pt simulation module. -->
		<param name="analyzedModes" value="car" />
		<param name="calculateLinkToLinkTravelTimes" value="true" />
		<param name="calculateLinkTravelTimes" value="true" />
		<!-- (only for backwards compatiblity; only used if separateModes==false)  Only modes included in analyzedModes are included. -->
		<param name="filterModes" value="false" />
		<!-- The lenght (in sec) of the time period that is splited into time bins; an additional time bin is created to aggregate all travel times collected after maxTime -->
		<param name="maxTime" value="108000" />
		<!-- (only for backwards compatibility) If false, link travel times are measured and aggregated over all vehicles using the link. -->
		<param name="separateModes" value="false" />
		<!-- How to deal with congested time bins that have no link entry events. `optimistic' assumes free speed (too optimistic); 'experimental_LastMile' is experimental and probably too pessimistic. -->
		<param name="travelTimeAggregator" value="optimistic" />
		<!-- The size of the time bin (in sec) into which the link travel times are aggregated for the router -->
		<param name="travelTimeBinSize" value="900.0" />
		<!-- How to deal with link entry times at different positions during the time bin. Currently supported: average, linearinterpolation -->
		<param name="travelTimeGetter" value="average" />
	</module>
	<module name="vehicles" >
		<param name="vehiclesFile" value="null" />
	</module>
	<module name="vspExperimental" >
		<!-- (do not use except of you have to) There was a problem with pt interaction scoring.  Some people solved it by overwriting the parameters of the pt interaction activity type.  Doing this now throws an Exception.  If you still insist on doing this, set the following to true. -->
		<param name="isAbleToOverwritePtInteractionParams" value="false" />
		<param name="isGeneratingBoardingDeniedEvent" value="false" />
		<!-- if an approximation of the opportunity cost of time is included into the radius calculation for location choice.`true' will be faster, but it is an approximation.  Default is `true'; `false' is available for backwards compatibility. -->
		<param name="isUsingOpportunityCostOfTimeForLocationChoice" value="true" />
		<param name="logitScaleParamForPlansRemoval" value="1.0" />
		<!-- Options: | ignore | info | warn | abort | .  When violating VSP defaults, this results in nothing, logfile infos, logfile warnings, or aborts.  Members of VSP should use `abort' or talk to kai. -->
		<param name="vspDefaultsCheckingLevel" value="ignore" />
		<!-- if true then writes output_events in output directory.  default is `false'. Will only work when lastIteration is multiple of events writing interval -->
		<param name="writingOutputEvents" value="true" />
	</module>

</config>

2024-08-13T16:07:33,198  INFO ControlerUtils:84 Complete config dump done.
2024-08-13T16:07:33,198  INFO ControlerUtils:85 Checking consistency of config...
2024-08-13T16:07:33,198  INFO ScoringConfigGroup$ScoringParameterSet:1555 NO OPENING OR CLOSING TIMES DEFINED!

There is no activity type that has an opening *and* closing time (or opening time and late penalty) defined.
This usually means that the activity chains can be shifted by an arbitrary
number of hours without having an effect on the score of the plans, and thus
resulting in wrong results / traffic patterns.
If you are using MATSim without time adaptation, you can ignore this warning.


2024-08-13T16:07:33,198  INFO VspConfigConsistencyCheckerImpl:68 NOT running vsp config consistency check because vsp defaults checking level is set to IGNORE
2024-08-13T16:07:33,200  WARN ConfigConsistencyCheckerImpl:139 Config enables link travel time calculation and link to link travel time calculation. This requires at least twice as much memory as if only one method is used, however it might be necessary to enable a certain module configuration.
2024-08-13T16:07:33,201  INFO ControlerUtils:87 Checking consistency of config done.
2024-08-13T16:07:33,225  WARN PrepareForSimImpl:268 'usePersonIdForMissingVehicleId' is deprecated. It will be removed soon.
2024-08-13T16:07:33,249  INFO Counter:70 [VehiclesImpl] added vehicle # 1
2024-08-13T16:07:33,249  INFO Counter:70 [VehiclesImpl] added vehicle # 2
2024-08-13T16:07:33,249  INFO Counter:70 [VehiclesImpl] added vehicle # 4
2024-08-13T16:07:33,249  INFO Counter:70 [VehiclesImpl] added vehicle # 8
2024-08-13T16:07:33,250  INFO Counter:70 [VehiclesImpl] added vehicle # 16
2024-08-13T16:07:33,250  INFO Counter:70 [VehiclesImpl] added vehicle # 32
2024-08-13T16:07:33,250  INFO Counter:70 [VehiclesImpl] added vehicle # 64
2024-08-13T16:07:33,250  INFO Counter:70 [VehiclesImpl] added vehicle # 128
2024-08-13T16:07:33,251  INFO Counter:70 [VehiclesImpl] added vehicle # 256
2024-08-13T16:07:33,313  INFO SpeedyALTData:51 find dead ends...
2024-08-13T16:07:33,334  INFO SpeedyALTData:132 calculate landmarks...
2024-08-13T16:07:33,559  INFO SpeedyALTData:173 calculate min travelcost...
2024-08-13T16:07:33,575  INFO NetworkImpl:165  node # 1
2024-08-13T16:07:33,576  INFO NetworkImpl:165  node # 4
2024-08-13T16:07:33,576  INFO NetworkImpl:165  node # 16
2024-08-13T16:07:33,576  INFO NetworkImpl:165  node # 64
2024-08-13T16:07:33,576  INFO NetworkImpl:165  node # 256
2024-08-13T16:07:33,577  INFO NetworkImpl:165  node # 1024
2024-08-13T16:07:33,578  INFO NetworkImpl:165  node # 4096
2024-08-13T16:07:33,583  INFO NetworkImpl:165  node # 16384
2024-08-13T16:07:33,590  INFO NetworkImpl:161  link # 1
2024-08-13T16:07:33,590  INFO NetworkImpl:161  link # 4
2024-08-13T16:07:33,590  INFO NetworkImpl:161  link # 16
2024-08-13T16:07:33,591  INFO NetworkImpl:161  link # 64
2024-08-13T16:07:33,592  INFO NetworkImpl:161  link # 256
2024-08-13T16:07:33,595  INFO NetworkImpl:161  link # 1024
2024-08-13T16:07:33,603  INFO NetworkImpl:161  link # 4096
2024-08-13T16:07:33,632  INFO NetworkImpl:161  link # 16384
2024-08-13T16:07:33,701  INFO NetworkImpl:161  link # 65536
2024-08-13T16:07:33,715  WARN RandomizingTimeDistanceTravelDisutilityFactory:118 There will be no routing randomness. The randomization of the travel disutility requires the travel time cost rate to be different than zero. Continuing anyway.
2024-08-13T16:07:33,717  INFO RandomizingTimeDistanceTravelDisutilityFactory:86  sigma: 3.0; resulting normalization: 0.011108996538242306
2024-08-13T16:07:33,740  INFO SpeedyALTData:51 find dead ends...
2024-08-13T16:07:33,744  INFO SpeedyALTData:132 calculate landmarks...
2024-08-13T16:07:33,892  INFO SpeedyALTData:173 calculate min travelcost...
2024-08-13T16:07:33,924  INFO SpeedyALTData:51 find dead ends...
2024-08-13T16:07:33,929  INFO SpeedyALTData:132 calculate landmarks...
2024-08-13T16:07:34,102  INFO SpeedyALTData:173 calculate min travelcost...
2024-08-13T16:07:34,117  INFO RandomizingTimeDistanceTravelDisutilityFactory:86  sigma: 3.0; resulting normalization: 0.011108996538242306
2024-08-13T16:07:34,136  INFO NetworkImpl:419 building QuadTree for nodes: xrange(496047.7322618446,510026.973641168); yrange(5449479.555227358,5455449.2573844595)
2024-08-13T16:07:34,189  INFO NetworkImpl:428 Building QuadTree took 0.064 seconds.
2024-08-13T16:07:34,227  INFO Counter:70 [PersonPrepareForSim] handled person # 1
2024-08-13T16:07:34,231  INFO Counter:70 [PersonPrepareForSim] handled person # 2
2024-08-13T16:07:34,234  INFO Counter:70 [PersonPrepareForSim] handled person # 4
2024-08-13T16:07:34,241  INFO Counter:70 [PersonPrepareForSim] handled person # 8
2024-08-13T16:07:34,267  INFO Counter:70 [PersonPrepareForSim] handled person # 16
2024-08-13T16:07:34,303  INFO Counter:70 [PersonPrepareForSim] handled person # 32
2024-08-13T16:07:34,368  INFO Counter:70 [PersonPrepareForSim] handled person # 64
2024-08-13T16:07:34,494  INFO Counter:70 [PersonPrepareForSim] handled person # 128
2024-08-13T16:07:34,680  INFO Counter:70 [PersonPrepareForSim] handled person # 256
2024-08-13T16:07:35,244  INFO Counter:75 [PersonPrepareForSim] handled person # 500
2024-08-13T16:07:35,262  INFO AbstractController:136 ###################################################
2024-08-13T16:07:35,263  INFO AbstractController:137 ### ITERATION 0 BEGINS
2024-08-13T16:07:35,264  INFO ControlerListenerManagerImpl:156 calling notifyIterationStarts on org.matsim.analysis.LegHistogramListener with priority 0.0
2024-08-13T16:07:35,264  INFO ControlerListenerManagerImpl:156 calling notifyIterationStarts on org.matsim.analysis.LinkStatsControlerListener with priority 0.0
2024-08-13T16:07:35,264  INFO ControlerListenerManagerImpl:156 calling notifyIterationStarts on org.matsim.core.replanning.ReplanningContextImpl with priority 0.0
2024-08-13T16:07:35,264  INFO ControlerListenerManagerImpl:156 calling notifyIterationStarts on org.matsim.core.scoring.ScoringFunctionsForPopulation$$Lambda/0x000001fa5935a788 with priority 0.0
2024-08-13T16:07:35,274  INFO ControlerListenerManagerImpl:156 calling notifyIterationStarts on org.matsim.core.scoring.ExperiencedPlansServiceImpl$1 with priority 0.0
2024-08-13T16:07:35,275  INFO ControlerListenerManagerImpl:159 [it.0] all ControlerIterationStartsListeners called.
2024-08-13T16:07:35,275  INFO ControlerListenerManagerImpl:242 calling notifyBeforeMobsim on org.matsim.core.controler.corelisteners.EventsHandlingImpl with priority 0.0
2024-08-13T16:07:35,275  INFO EventsManagerImpl:168 resetting Event-Handlers
2024-08-13T16:07:35,275  INFO EventsManagerImpl:175   org.matsim.core.trafficmonitoring.TravelTimeCalculator
2024-08-13T16:07:35,289  INFO EventsManagerImpl:175   org.matsim.analysis.VolumesAnalyzer
2024-08-13T16:07:35,290  INFO EventsManagerImpl:175   org.matsim.core.scoring.ScoringFunctionsForPopulation
2024-08-13T16:07:35,290  INFO EventsManagerImpl:175   org.matsim.analysis.LegHistogram
2024-08-13T16:07:35,290  INFO EventsManagerImpl:175   org.matsim.analysis.CalcLegTimes
2024-08-13T16:07:35,294  INFO EventsManagerImpl:138 adding Event-Handler: org.matsim.core.events.algorithms.EventWriterXML
2024-08-13T16:07:35,294  INFO EventsManagerImpl:144   org.matsim.core.events.algorithms.EventWriter
2024-08-13T16:07:35,294  INFO EventsManagerImpl:144   org.matsim.core.events.handler.BasicEventHandler
2024-08-13T16:07:35,294  INFO EventsManagerImpl:205     > org.matsim.api.core.v01.events.Event
2024-08-13T16:07:35,294  INFO EventsManagerImpl:154 
2024-08-13T16:07:35,294  INFO EventsManagerImpl:138 adding Event-Handler: org.matsim.core.events.algorithms.EventWriterXML
2024-08-13T16:07:35,294  INFO EventsManagerImpl:144   org.matsim.core.events.algorithms.EventWriter
2024-08-13T16:07:35,294  INFO EventsManagerImpl:144   org.matsim.core.events.handler.BasicEventHandler
2024-08-13T16:07:35,294  INFO EventsManagerImpl:205     > org.matsim.api.core.v01.events.Event
2024-08-13T16:07:35,294  INFO EventsManagerImpl:154 
2024-08-13T16:07:35,295  INFO ControlerListenerManagerImpl:242 calling notifyBeforeMobsim on org.matsim.core.controler.corelisteners.PlansDumpingImpl with priority 0.0
2024-08-13T16:07:35,295  INFO PlansDumpingImpl:77 dumping plans...
2024-08-13T16:07:35,332  INFO Counter:70 [PopulationWriter] dumped person # 1
2024-08-13T16:07:35,332  INFO Counter:70 [PopulationWriter] dumped person # 2
2024-08-13T16:07:35,332  INFO Counter:70 [PopulationWriter] dumped person # 4
2024-08-13T16:07:35,332  INFO Counter:70 [PopulationWriter] dumped person # 8
2024-08-13T16:07:35,332  INFO Counter:70 [PopulationWriter] dumped person # 16
2024-08-13T16:07:35,332  INFO Counter:70 [PopulationWriter] dumped person # 32
2024-08-13T16:07:35,332  INFO Counter:70 [PopulationWriter] dumped person # 64
2024-08-13T16:07:35,333  INFO Counter:70 [PopulationWriter] dumped person # 128
2024-08-13T16:07:35,333  INFO Counter:70 [PopulationWriter] dumped person # 256
2024-08-13T16:07:35,339  INFO Counter:70 [ParallelPopulationWriterV6] dumped person # 1
2024-08-13T16:07:35,340  INFO Counter:70 [ParallelPopulationWriterV6] dumped person # 2
2024-08-13T16:07:35,340  INFO Counter:70 [ParallelPopulationWriterV6] dumped person # 4
2024-08-13T16:07:35,341  INFO Counter:70 [ParallelPopulationWriterV6] dumped person # 8
2024-08-13T16:07:35,344  INFO Counter:70 [ParallelPopulationWriterV6] dumped person # 16
2024-08-13T16:07:35,350  INFO Counter:70 [ParallelPopulationWriterV6] dumped person # 32
2024-08-13T16:07:35,363  INFO Counter:70 [ParallelPopulationWriterV6] dumped person # 64
2024-08-13T16:07:35,379  INFO Counter:70 [ParallelPopulationWriterV6] dumped person # 128
2024-08-13T16:07:35,410  INFO Counter:70 [ParallelPopulationWriterV6] dumped person # 256
2024-08-13T16:07:35,470  INFO Counter:75 [ParallelPopulationWriterV6] dumped person # 500
2024-08-13T16:07:35,471  INFO PopulationWriter:150 Population written to: ./output/ITERS/it.0/0.plans.xml.gz
2024-08-13T16:07:35,472  INFO Counter:75 [PopulationWriter] dumped person # 500
2024-08-13T16:07:35,472  INFO PlansDumpingImpl:94 finished plans dump.
2024-08-13T16:07:35,473  INFO ControlerListenerManagerImpl:248 calling notifyBeforeMobsim on org.matsim.core.population.VspPlansCleaner with priority 0.0
2024-08-13T16:07:35,475  INFO ControlerListenerManagerImpl:251 [it.0] all ControlerBeforeMobsimListeners called.
2024-08-13T16:07:35,480  INFO RandomizingTimeDistanceTravelDisutilityFactory:86  sigma: 3.0; resulting normalization: 0.011108996538242306
2024-08-13T16:07:35,484  INFO RandomizingTimeDistanceTravelDisutilityFactory:86  sigma: 3.0; resulting normalization: 0.011108996538242306
2024-08-13T16:07:35,488  INFO Counter:70 [PersonPrepareForSim] handled person # 2
2024-08-13T16:07:35,489  INFO Counter:70 [PersonPrepareForSim] handled person # 4
2024-08-13T16:07:35,489  INFO Counter:70 [PersonPrepareForSim] handled person # 8
2024-08-13T16:07:35,489  INFO Counter:70 [PersonPrepareForSim] handled person # 16
2024-08-13T16:07:35,489  INFO Counter:70 [PersonPrepareForSim] handled person # 32
2024-08-13T16:07:35,488  INFO Counter:70 [PersonPrepareForSim] handled person # 1
2024-08-13T16:07:35,489  INFO Counter:70 [PersonPrepareForSim] handled person # 64
2024-08-13T16:07:35,489  INFO Counter:70 [PersonPrepareForSim] handled person # 128
2024-08-13T16:07:35,490  INFO Counter:70 [PersonPrepareForSim] handled person # 256
2024-08-13T16:07:35,490  INFO Counter:75 [PersonPrepareForSim] handled person # 500
2024-08-13T16:07:35,565  INFO MobsimListenerManager:50 calling addQueueSimulationListener
2024-08-13T16:07:35,565  INFO MobsimListenerManager:54   assigned class org.matsim.core.mobsim.framework.listeners.MobsimListener to interface org.matsim.vis.snapshotwriters.SnapshotWriterManager
2024-08-13T16:07:35,565  INFO MobsimListenerManager:54   assigned class org.matsim.core.mobsim.framework.listeners.MobsimListener to interface org.matsim.core.mobsim.framework.listeners.MobsimInitializedListener
2024-08-13T16:07:35,565  INFO MobsimListenerManager:54   assigned class org.matsim.core.mobsim.framework.listeners.MobsimListener to interface org.matsim.core.mobsim.framework.listeners.MobsimAfterSimStepListener
2024-08-13T16:07:35,565  INFO MobsimListenerManager:54   assigned class org.matsim.core.mobsim.framework.listeners.MobsimListener to interface org.matsim.core.mobsim.framework.listeners.MobsimListener
2024-08-13T16:07:35,565  INFO MobsimListenerManager:54   assigned class org.matsim.core.mobsim.framework.listeners.MobsimListener to interface org.matsim.core.mobsim.framework.listeners.MobsimBeforeCleanupListener
2024-08-13T16:07:35,572  INFO QSimProvider:131 Added MobsimEngine class org.matsim.core.mobsim.qsim.ActivityEngineDefaultImpl
2024-08-13T16:07:35,572  INFO QSimProvider:137 Added Activityhandler class org.matsim.core.mobsim.qsim.ActivityEngineDefaultImpl
2024-08-13T16:07:35,606  WARN QueueWithBuffer:500 Link 1018976280001f too small: enlarge storage capacity from: 1.0666666666666667 Vehicles to: 1.0764648618405626 Vehicles.  This is not fatal, but modifies the traffic flow dynamics.
2024-08-13T16:07:35,615  WARN QueueWithBuffer:500 Link 10796566480001f too small: enlarge storage capacity from: 1.0666666666666667 Vehicles to: 1.152 Vehicles.  This is not fatal, but modifies the traffic flow dynamics.
2024-08-13T16:07:35,615  WARN QueueWithBuffer:500 Link 10796566480001r too small: enlarge storage capacity from: 1.0666666666666667 Vehicles to: 1.152 Vehicles.  This is not fatal, but modifies the traffic flow dynamics.
2024-08-13T16:07:35,627  WARN QueueWithBuffer:500 Link 12460716710001f too small: enlarge storage capacity from: 1.0666666666666667 Vehicles to: 1.152 Vehicles.  This is not fatal, but modifies the traffic flow dynamics.
2024-08-13T16:07:35,628  WARN QueueWithBuffer:500 Link 12460716710001r too small: enlarge storage capacity from: 1.0666666666666667 Vehicles to: 1.152 Vehicles.  This is not fatal, but modifies the traffic flow dynamics.
2024-08-13T16:07:35,630  WARN QueueWithBuffer:500 Link 1262895110001f too small: enlarge storage capacity from: 1.0666666666666667 Vehicles to: 1.1178481351289669 Vehicles.  This is not fatal, but modifies the traffic flow dynamics.
2024-08-13T16:07:35,630  WARN QueueWithBuffer:500 Link 1262895110002f too small: enlarge storage capacity from: 1.0666666666666667 Vehicles to: 1.0743227619812203 Vehicles.  This is not fatal, but modifies the traffic flow dynamics.
2024-08-13T16:07:35,630  WARN QueueWithBuffer:500 Link 1262895130001f too small: enlarge storage capacity from: 1.0666666666666667 Vehicles to: 1.1113297729973657 Vehicles.  This is not fatal, but modifies the traffic flow dynamics.
2024-08-13T16:07:35,630  WARN QueueWithBuffer:500 Link 1262895150001f too small: enlarge storage capacity from: 1.0666666666666667 Vehicles to: 1.1259544144996523 Vehicles.  This is not fatal, but modifies the traffic flow dynamics.
2024-08-13T16:07:35,630  WARN QueueWithBuffer:500 Link 12673061070003f too small: enlarge storage capacity from: 1.0666666666666667 Vehicles to: 1.152 Vehicles.  This is not fatal, but modifies the traffic flow dynamics.
2024-08-13T16:07:35,630  WARN QueueWithBuffer:500 Link 12673061070003r too small: enlarge storage capacity from: 1.0666666666666667 Vehicles to: 1.152 Vehicles.  This is not fatal, but modifies the traffic flow dynamics.
2024-08-13T16:07:35,630  WARN QueueWithBuffer:503 Additional warnings of this type are suppressed.
2024-08-13T16:07:35,834  INFO QSimProvider:143 Added DepartureHandler class org.matsim.core.mobsim.qsim.qnetsimengine.VehicularDepartureHandler
2024-08-13T16:07:35,834  INFO QSimProvider:131 Added MobsimEngine class org.matsim.core.mobsim.qsim.qnetsimengine.QNetsimEngineWithThreadpool
2024-08-13T16:07:35,834  INFO QSimProvider:131 Added MobsimEngine class org.matsim.core.mobsim.qsim.DefaultTeleportationEngine
2024-08-13T16:07:35,834  INFO QSimProvider:143 Added DepartureHandler class org.matsim.core.mobsim.qsim.DefaultTeleportationEngine
2024-08-13T16:07:35,834  INFO QSimProvider:149 Added AgentSource class org.matsim.core.mobsim.qsim.agents.PopulationAgentSource
2024-08-13T16:07:35,834  INFO MobsimListenerManager:50 calling addQueueSimulationListener
2024-08-13T16:07:35,835  INFO MobsimListenerManager:54   assigned class org.matsim.core.mobsim.framework.listeners.MobsimListener to interface org.matsim.core.mobsim.framework.listeners.MobsimBeforeSimStepListener
2024-08-13T16:07:35,835  INFO MobsimListenerManager:54   assigned class org.matsim.core.mobsim.framework.listeners.MobsimListener to interface org.matsim.core.mobsim.framework.listeners.MobsimListener
2024-08-13T16:07:35,835  INFO MobsimListenerManager:54   assigned class org.matsim.core.mobsim.framework.listeners.MobsimListener to interface org.matsim.core.mobsim.qsim.messagequeueengine.MessageQueueEngine
2024-08-13T16:07:35,835  INFO QSimProvider:155 Added MobsimListener class org.matsim.core.mobsim.qsim.messagequeueengine.MessageQueueEngine
2024-08-13T16:07:35,841  INFO PopulationUtils:1247 adding scenario element for allpersons container
2024-08-13T16:07:35,841  INFO PopulationImpl:107  person # 1
2024-08-13T16:07:35,841  INFO PopulationImpl:107  person # 4
2024-08-13T16:07:35,841  INFO PopulationImpl:107  person # 16
2024-08-13T16:07:35,841  INFO PopulationImpl:107  person # 64
2024-08-13T16:07:35,843  INFO PopulationImpl:107  person # 256
2024-08-13T16:07:35,845  INFO VehicleUtils:395 adding scenario element for allvehicles container
2024-08-13T16:07:35,845  INFO Counter:70 [VehiclesImpl] added vehicle # 1
2024-08-13T16:07:35,845  INFO Counter:70 [VehiclesImpl] added vehicle # 2
2024-08-13T16:07:35,845  INFO Counter:70 [VehiclesImpl] added vehicle # 4
2024-08-13T16:07:35,845  INFO Counter:70 [VehiclesImpl] added vehicle # 8
2024-08-13T16:07:35,845  INFO Counter:70 [VehiclesImpl] added vehicle # 16
2024-08-13T16:07:35,845  INFO Counter:70 [VehiclesImpl] added vehicle # 32
2024-08-13T16:07:35,846  INFO Counter:70 [VehiclesImpl] added vehicle # 64
2024-08-13T16:07:35,847  INFO Counter:70 [VehiclesImpl] added vehicle # 128
2024-08-13T16:07:35,848  INFO Counter:70 [VehiclesImpl] added vehicle # 256
2024-08-13T16:07:35,906  INFO AbstractQNetsimEngine:426 Assigned 35606 nodes and 72266 links to QSimEngineRunner #0
2024-08-13T16:07:35,909  INFO EventsManagerImpl:115  event # 1
2024-08-13T16:07:35,912  INFO EventsManagerImpl:115  event # 4
2024-08-13T16:07:35,913  INFO AbstractQNetsimEngine:364 SIMULATION (QNetsimEngine) AT 06:00:07 : #links=0 #nodes=1
2024-08-13T16:07:35,916  INFO QSim:566 SIMULATION (NEW QSim) AT 06:00:07 : #Veh=500 lost=0 simT=0.0s realT=0s; (s/r): 0.0
2024-08-13T16:07:35,937  INFO EventsManagerImpl:115  event # 16
2024-08-13T16:07:35,944  INFO EventsManagerImpl:115  event # 64
2024-08-13T16:07:35,958  INFO EventsManagerImpl:115  event # 256
2024-08-13T16:07:35,994  INFO EventsManagerImpl:115  event # 1024
2024-08-13T16:07:36,072  INFO EventsManagerImpl:115  event # 4096
2024-08-13T16:07:36,209  INFO EventsManagerImpl:115  event # 16384
2024-08-13T16:07:36,311  INFO AbstractQNetsimEngine:364 SIMULATION (QNetsimEngine) AT 07:00:00 : #links=17 #nodes=11
2024-08-13T16:07:36,311  INFO QSim:566 SIMULATION (NEW QSim) AT 07:00:00 : #Veh=500 lost=0 simT=3593.0s realT=0s; (s/r): Infinity
2024-08-13T16:07:36,589  INFO AbstractQNetsimEngine:364 SIMULATION (QNetsimEngine) AT 08:00:00 : #links=12 #nodes=14
2024-08-13T16:07:36,589  INFO QSim:566 SIMULATION (NEW QSim) AT 08:00:00 : #Veh=500 lost=0 simT=7193.0s realT=1s; (s/r): 7193.0
2024-08-13T16:07:36,595  INFO EventsManagerImpl:115  event # 65536
2024-08-13T16:07:36,816  INFO AbstractQNetsimEngine:364 SIMULATION (QNetsimEngine) AT 09:00:00 : #links=7 #nodes=8
2024-08-13T16:07:36,816  INFO QSim:566 SIMULATION (NEW QSim) AT 09:00:00 : #Veh=500 lost=0 simT=10793.0s realT=1s; (s/r): 10793.0
2024-08-13T16:07:37,045  INFO AbstractQNetsimEngine:364 SIMULATION (QNetsimEngine) AT 10:00:00 : #links=7 #nodes=12
2024-08-13T16:07:37,046  INFO QSim:566 SIMULATION (NEW QSim) AT 10:00:00 : #Veh=500 lost=0 simT=14393.0s realT=1s; (s/r): 14393.0
2024-08-13T16:07:37,284  INFO AbstractQNetsimEngine:364 SIMULATION (QNetsimEngine) AT 11:00:00 : #links=11 #nodes=11
2024-08-13T16:07:37,284  INFO QSim:566 SIMULATION (NEW QSim) AT 11:00:00 : #Veh=500 lost=0 simT=17993.0s realT=1s; (s/r): 17993.0
2024-08-13T16:07:37,532  INFO AbstractQNetsimEngine:364 SIMULATION (QNetsimEngine) AT 12:00:00 : #links=16 #nodes=15
2024-08-13T16:07:37,532  INFO QSim:566 SIMULATION (NEW QSim) AT 12:00:00 : #Veh=500 lost=0 simT=21593.0s realT=1s; (s/r): 21593.0
2024-08-13T16:07:37,680  INFO AbstractQNetsimEngine:364 SIMULATION (QNetsimEngine) AT 13:00:00 : #links=0 #nodes=0
2024-08-13T16:07:37,680  INFO QSim:566 SIMULATION (NEW QSim) AT 13:00:00 : #Veh=500 lost=0 simT=25193.0s realT=2s; (s/r): 12596.5
2024-08-13T16:07:37,803  INFO AbstractQNetsimEngine:364 SIMULATION (QNetsimEngine) AT 14:00:00 : #links=0 #nodes=0
2024-08-13T16:07:37,804  INFO QSim:566 SIMULATION (NEW QSim) AT 14:00:00 : #Veh=500 lost=0 simT=28793.0s realT=2s; (s/r): 14396.5
2024-08-13T16:07:38,006  INFO AbstractQNetsimEngine:364 SIMULATION (QNetsimEngine) AT 15:00:00 : #links=9 #nodes=6
2024-08-13T16:07:38,006  INFO QSim:566 SIMULATION (NEW QSim) AT 15:00:00 : #Veh=456 lost=0 simT=32393.0s realT=2s; (s/r): 16196.5
2024-08-13T16:07:38,212  INFO AbstractQNetsimEngine:364 SIMULATION (QNetsimEngine) AT 16:00:00 : #links=10 #nodes=3
2024-08-13T16:07:38,213  INFO QSim:566 SIMULATION (NEW QSim) AT 16:00:00 : #Veh=397 lost=0 simT=35993.0s realT=2s; (s/r): 17996.5
2024-08-13T16:07:38,307  INFO EventsManagerImpl:115  event # 262144
2024-08-13T16:07:38,412  INFO AbstractQNetsimEngine:364 SIMULATION (QNetsimEngine) AT 17:00:00 : #links=9 #nodes=7
2024-08-13T16:07:38,413  INFO QSim:566 SIMULATION (NEW QSim) AT 17:00:00 : #Veh=338 lost=0 simT=39593.0s realT=2s; (s/r): 19796.5
2024-08-13T16:07:38,606  INFO AbstractQNetsimEngine:364 SIMULATION (QNetsimEngine) AT 18:00:00 : #links=11 #nodes=5
2024-08-13T16:07:38,606  INFO QSim:566 SIMULATION (NEW QSim) AT 18:00:00 : #Veh=282 lost=0 simT=43193.0s realT=3s; (s/r): 14397.666666666666
2024-08-13T16:07:38,831  INFO AbstractQNetsimEngine:364 SIMULATION (QNetsimEngine) AT 19:00:00 : #links=15 #nodes=6
2024-08-13T16:07:38,831  INFO QSim:566 SIMULATION (NEW QSim) AT 19:00:00 : #Veh=222 lost=0 simT=46793.0s realT=3s; (s/r): 15597.666666666666
2024-08-13T16:07:39,037  INFO AbstractQNetsimEngine:364 SIMULATION (QNetsimEngine) AT 20:00:00 : #links=14 #nodes=10
2024-08-13T16:07:39,038  INFO QSim:566 SIMULATION (NEW QSim) AT 20:00:00 : #Veh=157 lost=0 simT=50393.0s realT=3s; (s/r): 16797.666666666668
2024-08-13T16:07:39,261  INFO AbstractQNetsimEngine:364 SIMULATION (QNetsimEngine) AT 21:00:00 : #links=21 #nodes=8
2024-08-13T16:07:39,262  INFO QSim:566 SIMULATION (NEW QSim) AT 21:00:00 : #Veh=92 lost=0 simT=53993.0s realT=3s; (s/r): 17997.666666666668
2024-08-13T16:07:39,503  INFO AbstractQNetsimEngine:364 SIMULATION (QNetsimEngine) AT 22:00:00 : #links=18 #nodes=9
2024-08-13T16:07:39,503  INFO QSim:566 SIMULATION (NEW QSim) AT 22:00:00 : #Veh=22 lost=0 simT=57593.0s realT=3s; (s/r): 19197.666666666668
2024-08-13T16:07:39,600  INFO Gbl:196 Thread performance: Thread=class org.matsim.core.events.SimStepParallelEventsManagerImpl$ProcessEventsRunnable0  cpu-time=1.75sec
2024-08-13T16:07:39,600  INFO AbstractController$9:237 ### ITERATION 0 fires after mobsim event
2024-08-13T16:07:39,601  INFO ControlerListenerManagerImpl:269 calling notifyAfterMobsim on org.matsim.analysis.LegTimesControlerListener with priority 0.0
2024-08-13T16:07:39,606  INFO LegTimesControlerListener:51 [0] average trip (probably: leg) duration is: 866 seconds = 00:14:26
2024-08-13T16:07:39,606  INFO ControlerListenerManagerImpl:269 calling notifyAfterMobsim on org.matsim.core.events.MobsimScopeEventHandling with priority 0.0
2024-08-13T16:07:39,607  INFO ControlerListenerManagerImpl:269 calling notifyAfterMobsim on org.matsim.core.scoring.EventsToActivities$1 with priority 0.0
2024-08-13T16:07:39,608  INFO ControlerListenerManagerImpl:272 [it.0] all ControlerAfterMobsimListeners called.
2024-08-13T16:07:39,609  INFO AbstractController$4:162 ### ITERATION 0 fires scoring event
2024-08-13T16:07:39,609  INFO ControlerListenerManagerImpl:197 calling notifyScoring on org.matsim.core.scoring.PlansScoringImpl with priority 0.0
2024-08-13T16:07:39,613  INFO NewScoreAssignerImpl:58 it: 0 msaStart: null
2024-08-13T16:07:39,614  INFO ControlerListenerManagerImpl:209 [it.0] all ControlerScoringListeners called.
2024-08-13T16:07:39,614  INFO AbstractController$5:170 ### ITERATION 0 fires iteration end event
2024-08-13T16:07:39,615  INFO ControlerListenerManagerImpl:172 calling notifyIterationEnds on org.matsim.core.controler.corelisteners.EventsHandlingImpl with priority 0.0
2024-08-13T16:07:39,615  INFO EventsManagerImpl:159 removing Event-Handler: org.matsim.core.events.algorithms.EventWriterXML
2024-08-13T16:07:39,615  INFO EventsManagerImpl:159 removing Event-Handler: org.matsim.core.events.algorithms.EventWriterXML
2024-08-13T16:07:39,616  INFO ControlerListenerManagerImpl:172 calling notifyIterationEnds on org.matsim.core.scoring.PlansScoringImpl with priority 0.0
2024-08-13T16:07:39,616  INFO ControlerListenerManagerImpl:180 calling notifyIterationEnds on org.matsim.counts.CountsControlerListener with priority 0.0
2024-08-13T16:07:39,616  INFO ControlerListenerManagerImpl:180 calling notifyIterationEnds on org.matsim.analysis.ModeStatsControlerListener with priority 0.0
2024-08-13T16:07:39,618  INFO ModeStatsControlerListener:133 Mode shares over all 1000.0 trips found. MainModeIdentifier: class org.matsim.core.router.DefaultAnalysisMainModeIdentifier
2024-08-13T16:07:39,619  INFO ModeStatsControlerListener:140 -- mode share of mode car = 1.0
2024-08-13T16:07:39,620  INFO ControlerListenerManagerImpl:180 calling notifyIterationEnds on org.matsim.analysis.ScoreStatsControlerListener with priority 0.0
2024-08-13T16:07:39,621  INFO ScoreStatsControlerListener:154 -- avg. score of the executed plan of each agent: 131.5905311979347
2024-08-13T16:07:39,621  INFO ScoreStatsControlerListener:155 -- avg. score of the worst plan of each agent: 131.5905311979347
2024-08-13T16:07:39,622  INFO ScoreStatsControlerListener:156 -- avg. of the avg. plan score per agent: 131.5905311979347
2024-08-13T16:07:39,622  INFO ScoreStatsControlerListener:157 -- avg. score of the best plan of each agent: 131.5905311979347
2024-08-13T16:07:39,627  INFO ControlerListenerManagerImpl:180 calling notifyIterationEnds on org.matsim.analysis.IterationTravelStatsControlerListener with priority 0.0
2024-08-13T16:07:39,654  INFO TravelDistanceStats:115 -- average leg distance per plan (executed plans only): 6797.507627997574 meters
2024-08-13T16:07:39,654  INFO TravelDistanceStats:116 average leg distance per Person (executed plans only): 13595.015255995148 meters (statistic on all 1000 legs which have a finite distance)
2024-08-13T16:07:39,654  INFO TravelDistanceStats:117 -- average trip distance per plan (executed plans only): 6797.507627997574 meters
2024-08-13T16:07:39,655  INFO TravelDistanceStats:118 average trip distance per Person (executed plans only): 13595.015255995148 meters (statistic on all 1000 trips which have a finite distance)
2024-08-13T16:07:39,655  INFO TravelDistanceStats:119 (TravelDistanceStats takes an average over all legs where the simulation reports travelled (network) distances
2024-08-13T16:07:39,655  INFO TravelDistanceStats:120 (and teleported legs whose route contains a distance.)
2024-08-13T16:07:39,715  INFO ActivityWriter:39 Writing all Activities to activitiescsv
2024-08-13T16:07:39,735  INFO ActivityWriter:59 ...done
2024-08-13T16:07:39,735  INFO ControlerListenerManagerImpl:180 calling notifyIterationEnds on org.matsim.analysis.LegHistogramListener with priority 0.0
2024-08-13T16:07:39,739  INFO LegHistogramListener:73 number of legs:	1000	100%
2024-08-13T16:07:39,742  INFO LegHistogramListener:80 number of car legs:	1000	100.0%
2024-08-13T16:07:40,182  INFO ControlerListenerManagerImpl:180 calling notifyIterationEnds on org.matsim.analysis.LinkStatsControlerListener with priority 0.0
2024-08-13T16:07:40,183  INFO ControlerListenerManagerImpl:184 [it.0] all ControlerIterationEndsListeners called.
2024-08-13T16:07:40,259  INFO AbstractController:184 ### ITERATION 0 ENDS
2024-08-13T16:07:40,259  INFO AbstractController:185 ###################################################
2024-08-13T16:07:40,259  INFO MatsimRuntimeModifications:80 S H U T D O W N   ---   start shutdown.
2024-08-13T16:07:40,260  INFO ControlerListenerManagerImpl:128 calling notifyShutdown on org.matsim.core.controler.corelisteners.EventsHandlingImpl with priority 0.0
2024-08-13T16:07:40,260  INFO ControlerListenerManagerImpl:128 calling notifyShutdown on org.matsim.core.controler.corelisteners.DumpDataAtEndImpl with priority 0.0
2024-08-13T16:07:40,261  INFO Counter:70 [PopulationWriter] dumped person # 1
2024-08-13T16:07:40,261  INFO Counter:70 [PopulationWriter] dumped person # 2
2024-08-13T16:07:40,261  INFO Counter:70 [PopulationWriter] dumped person # 4
2024-08-13T16:07:40,261  INFO Counter:70 [PopulationWriter] dumped person # 8
2024-08-13T16:07:40,261  INFO Counter:70 [PopulationWriter] dumped person # 16
2024-08-13T16:07:40,262  INFO Counter:70 [PopulationWriter] dumped person # 32
2024-08-13T16:07:40,262  INFO Counter:70 [PopulationWriter] dumped person # 64
2024-08-13T16:07:40,262  INFO Counter:70 [PopulationWriter] dumped person # 128
2024-08-13T16:07:40,262  INFO Counter:70 [PopulationWriter] dumped person # 256
2024-08-13T16:07:40,262  INFO Counter:70 [ParallelPopulationWriterV6] dumped person # 1
2024-08-13T16:07:40,263  INFO Counter:70 [ParallelPopulationWriterV6] dumped person # 2
2024-08-13T16:07:40,263  INFO Counter:70 [ParallelPopulationWriterV6] dumped person # 4
2024-08-13T16:07:40,264  INFO Counter:70 [ParallelPopulationWriterV6] dumped person # 8
2024-08-13T16:07:40,267  INFO Counter:70 [ParallelPopulationWriterV6] dumped person # 16
2024-08-13T16:07:40,273  INFO Counter:70 [ParallelPopulationWriterV6] dumped person # 32
2024-08-13T16:07:40,284  INFO Counter:70 [ParallelPopulationWriterV6] dumped person # 64
2024-08-13T16:07:40,304  INFO Counter:70 [ParallelPopulationWriterV6] dumped person # 128
2024-08-13T16:07:40,342  INFO Counter:70 [ParallelPopulationWriterV6] dumped person # 256
2024-08-13T16:07:40,406  INFO Counter:75 [ParallelPopulationWriterV6] dumped person # 500
2024-08-13T16:07:40,407  INFO PopulationWriter:150 Population written to: ./output/output_plans.xml.gz
2024-08-13T16:07:40,408  INFO Counter:75 [PopulationWriter] dumped person # 500
2024-08-13T16:07:40,410  INFO NetworkWriter:70 Writing network to file: ./output/output_network.xml.gz...
2024-08-13T16:07:40,933  INFO NetworkWriter:73 done.
2024-08-13T16:07:40,940  INFO Config:550 setting context to [file:/C:/Users/HW5P/IdeaProjects/MATsim-example-project/scenarios/equil/]
2024-08-13T16:07:40,942  INFO Config:550 setting context to [file:/C:/Users/HW5P/IdeaProjects/MATsim-example-project/scenarios/equil/]
2024-08-13T16:07:40,944  INFO Config:550 setting context to [file:/C:/Users/HW5P/IdeaProjects/MATsim-example-project/scenarios/equil/]
2024-08-13T16:07:40,944  INFO Config:550 setting context to [file:/C:/Users/HW5P/IdeaProjects/MATsim-example-project/scenarios/equil/]
2024-08-13T16:07:40,945  INFO Config:550 setting context to [file:/C:/Users/HW5P/IdeaProjects/MATsim-example-project/scenarios/equil/]
2024-08-13T16:07:40,946  INFO Config:550 setting context to [file:/C:/Users/HW5P/IdeaProjects/MATsim-example-project/scenarios/equil/]
2024-08-13T16:07:40,946  INFO Config:550 setting context to [file:/C:/Users/HW5P/IdeaProjects/MATsim-example-project/scenarios/equil/]
2024-08-13T16:07:40,948  INFO Config:550 setting context to [file:/C:/Users/HW5P/IdeaProjects/MATsim-example-project/scenarios/equil/]
2024-08-13T16:07:40,948  INFO Config:550 setting context to [file:/C:/Users/HW5P/IdeaProjects/MATsim-example-project/scenarios/equil/]
2024-08-13T16:07:40,948  INFO Config:550 setting context to [file:/C:/Users/HW5P/IdeaProjects/MATsim-example-project/scenarios/equil/]
2024-08-13T16:07:40,949  INFO Config:550 setting context to [file:/C:/Users/HW5P/IdeaProjects/MATsim-example-project/scenarios/equil/]
2024-08-13T16:07:40,951  INFO Config:550 setting context to [file:/C:/Users/HW5P/IdeaProjects/MATsim-example-project/scenarios/equil/]
2024-08-13T16:07:40,952  INFO Config:550 setting context to [file:/C:/Users/HW5P/IdeaProjects/MATsim-example-project/scenarios/equil/]
2024-08-13T16:07:40,953  INFO Config:550 setting context to [file:/C:/Users/HW5P/IdeaProjects/MATsim-example-project/scenarios/equil/]
2024-08-13T16:07:40,955  INFO Config:550 setting context to [file:/C:/Users/HW5P/IdeaProjects/MATsim-example-project/scenarios/equil/]
2024-08-13T16:07:40,956  INFO Config:550 setting context to [file:/C:/Users/HW5P/IdeaProjects/MATsim-example-project/scenarios/equil/]
2024-08-13T16:07:40,956  INFO Config:550 setting context to [file:/C:/Users/HW5P/IdeaProjects/MATsim-example-project/scenarios/equil/]
2024-08-13T16:07:40,957  INFO Config:550 setting context to [file:/C:/Users/HW5P/IdeaProjects/MATsim-example-project/scenarios/equil/]
2024-08-13T16:07:40,958  INFO Config:550 setting context to [file:/C:/Users/HW5P/IdeaProjects/MATsim-example-project/scenarios/equil/]
2024-08-13T16:07:40,960  INFO Config:550 setting context to [file:/C:/Users/HW5P/IdeaProjects/MATsim-example-project/scenarios/equil/]
2024-08-13T16:07:40,961  INFO Config:550 setting context to [file:/C:/Users/HW5P/IdeaProjects/MATsim-example-project/scenarios/equil/]
2024-08-13T16:07:40,961  INFO Config:550 setting context to [file:/C:/Users/HW5P/IdeaProjects/MATsim-example-project/scenarios/equil/]
2024-08-13T16:07:40,961  INFO Config:550 setting context to [file:/C:/Users/HW5P/IdeaProjects/MATsim-example-project/scenarios/equil/]
2024-08-13T16:07:40,962  INFO Config:550 setting context to [file:/C:/Users/HW5P/IdeaProjects/MATsim-example-project/scenarios/equil/]
2024-08-13T16:07:40,963  INFO Config:550 setting context to [file:/C:/Users/HW5P/IdeaProjects/MATsim-example-project/scenarios/equil/]
2024-08-13T16:07:40,964  INFO Config:550 setting context to [file:/C:/Users/HW5P/IdeaProjects/MATsim-example-project/scenarios/equil/]
2024-08-13T16:07:40,970  INFO MatsimVehicleWriter:49 about to write vehicles to: ./output/output_vehicles.xml.gz
2024-08-13T16:07:40,970  INFO VehicleWriterV2:64 about to write vehicles to: ./output/output_vehicles.xml.gz
2024-08-13T16:07:40,974  INFO MatsimVehicleWriter:49 about to write vehicles to: ./output/output_allVehicles.xml.gz
2024-08-13T16:07:40,974  INFO VehicleWriterV2:64 about to write vehicles to: ./output/output_allVehicles.xml.gz
2024-08-13T16:07:40,978  INFO HouseholdsWriterV10:66 about to write  households to: ./output/output_households.xml.gz
2024-08-13T16:07:40,978  INFO Counter:75 [HouseholdsWriter] wrote household # 0
2024-08-13T16:07:40,988  INFO CountsWriterV2:45 Write Counts to ./output/output_counts.xml.gz
2024-08-13T16:07:41,002  INFO ControlerListenerManagerImpl:135 calling notifyShutdown on org.matsim.analysis.ScoreStatsControlerListener with priority 0.0
2024-08-13T16:07:41,002  INFO ControlerListenerManagerImpl:135 calling notifyShutdown on org.matsim.analysis.IterationTravelStatsControlerListener with priority 0.0
2024-08-13T16:07:41,002  INFO PersonWriter:36 Writing all Persons to personscsv
2024-08-13T16:07:41,010  INFO PersonWriter:54 ...done
2024-08-13T16:07:41,010  INFO ControlerListenerManagerImpl:135 calling notifyShutdown on org.matsim.analysis.LinkStatsControlerListener with priority 0.0
2024-08-13T16:07:41,574  INFO ControlerListenerManagerImpl:138 all ControlerShutdownListeners called.
2024-08-13T16:07:41,574  INFO MatsimRuntimeModifications:103 S H U T D O W N   ---   shutdown completed.
2024-08-13T16:07:41,574  INFO OutputDirectoryLogging:172 closing the logfile, i.e. messages sent to the logger after this message are not written to the logfile.
